backend/src/smart_meter_simulator/data/grids/cineldi_50_bus_rural.glm
// Generated GridLAB-D model from the CINELDI LV reference grid
// Source: ../../../cineldi_lv_reference_system/lv_reference_grids/50_bus_rural_reference_grid
// Regenerated by scripts/regen_reference_glm.py -- do not hand-edit;
// change the constants in that script and re-run instead.
//
// Base: 0.23 kV L-L, 0.034400 MVA -> Zbase 1.5378 ohm. Per-branch r/x are carried through exactly
// as resistance_ohm_per_km / reactance_ohm_per_km on each line; the
// line_configuration objects hold the nominal per-conductor values and exist
// for real GridLAB-D tooling (the explicit per-line values take priority in
// this backend's parser). capacity_kw comes from the MATPOWER rateA column.
//
// ref_lv_bus_1 is the MV substation busbar (12.7 kV L-N
// -> ~22 kV L-L on ABCN, matching TRANSFORMER_MV_KV). Its LV network hangs off
// 7 distribution transformers (pcc_1..pcc_7) rather than lines, which is
// what makes each group a microgrid zone: the loader partitions on the line-only
// graph, so everything behind a transformer is one zone, and that transformer is
// the PCC tripped to island it. Zone codes come from the transformer names
// (1..7) -- keep them below IOT_NUM_ZONES (default 10) or the
// parent bridge hashes them to an arbitrary zone_<n> stream instead of routing.
//
//
// Loads are the 2021-01-01 00:00:00 snapshot of p_load/q_load (VA), not a time series.
// No DER: the dataset ships none and this grid has no PV profile, so no
// zone can hold voltage on its own if islanded.
module powerflow;
module generators;

// ---- conductor types (nominal; per-line values below take priority) ----
object line_configuration {
    name "lc_ex_3x25_al";
    z11 1.190909091+0.08225260773j ohm/km;
    resistance_ohm_per_km 1.190909091;
    reactance_ohm_per_km 0.08225260773;
    impedance_length_unit km;
    // EX 3x25 Al, mean over 22 branches
}

object line_configuration {
    name "lc_ex_3x50_al";
    z11 0.6575999837+0.1178437314j ohm/km;
    resistance_ohm_per_km 0.6575999837;
    reactance_ohm_per_km 0.1178437314;
    impedance_length_unit km;
    // EX 3x50 Al, mean over 5 branches
}

object line_configuration {
    name "lc_ex_3x95_al";
    z11 0.2793636364+0.07881737457j ohm/km;
    resistance_ohm_per_km 0.2793636364;
    reactance_ohm_per_km 0.07881737457;
    impedance_length_unit km;
    // EX 3x95 Al, mean over 22 branches
}

// ---- buses ----
object meter {
    name "ref_lv_bus_1";
    phases ABCN;
    nominal_voltage 12700.00;
}

object meter {
    name "ref_lv_bus_2";
    phases ABCN;
    nominal_voltage 230.00;
}

object meter {
    name "ref_lv_bus_3";
    phases ABCN;
    nominal_voltage 230.00;
}

object meter {
    name "ref_lv_bus_4";
    phases ABCN;
    nominal_voltage 230.00;
}

object meter {
    name "ref_lv_bus_5";
    phases ABCN;
    nominal_voltage 230.00;
}

object meter {
    name "ref_lv_bus_6";
    phases ABCN;
    nominal_voltage 230.00;
}

object meter {
    name "ref_lv_bus_7";
    phases ABCN;
    nominal_voltage 230.00;
}

object meter {
    name "ref_lv_bus_8";
    phases ABCN;
    nominal_voltage 230.00;
}

object meter {
    name "ref_lv_bus_9";
    phases ABCN;
    nominal_voltage 230.00;
}

object meter {
    name "ref_lv_bus_10";
    phases ABCN;
    nominal_voltage 230.00;
}

object meter {
    name "ref_lv_bus_11";
    phases ABCN;
    nominal_voltage 230.00;
}

object meter {
    name "ref_lv_bus_12";
    phases ABCN;
    nominal_voltage 230.00;
}

object meter {
    name "ref_lv_bus_13";
    phases ABCN;
    nominal_voltage 230.00;
}

object meter {
    name "ref_lv_bus_14";
    phases ABCN;
    nominal_voltage 230.00;
}

object meter {
    name "ref_lv_bus_15";
    phases ABCN;
    nominal_voltage 230.00;
}

object meter {
    name "ref_lv_bus_16";
    phases ABCN;
    nominal_voltage 230.00;
}

object meter {
    name "ref_lv_bus_17";
    phases ABCN;
    nominal_voltage 230.00;
}

object meter {
    name "ref_lv_bus_18";
    phases ABCN;
    nominal_voltage 230.00;
}

object meter {
    name "ref_lv_bus_19";
    phases ABCN;
    nominal_voltage 230.00;
}

object meter {
    name "ref_lv_bus_20";
    phases ABCN;
    nominal_voltage 230.00;
}

object meter {
    name "ref_lv_bus_21";
    phases ABCN;
    nominal_voltage 230.00;
}

object meter {
    name "ref_lv_bus_22";
    phases ABCN;
    nominal_voltage 230.00;
}

object meter {
    name "ref_lv_bus_23";
    phases ABCN;
    nominal_voltage 230.00;
}

object meter {
    name "ref_lv_bus_24";
    phases ABCN;
    nominal_voltage 230.00;
}

object meter {
    name "ref_lv_bus_25";
    phases ABCN;
    nominal_voltage 230.00;
}

object meter {
    name "ref_lv_bus_26";
    phases ABCN;
    nominal_voltage 230.00;
}

object meter {
    name "ref_lv_bus_27";
    phases ABCN;
    nominal_voltage 230.00;
}

object meter {
    name "ref_lv_bus_28";
    phases ABCN;
    nominal_voltage 230.00;
}

object meter {
    name "ref_lv_bus_29";
    phases ABCN;
    nominal_voltage 230.00;
}

object meter {
    name "ref_lv_bus_30";
    phases ABCN;
    nominal_voltage 230.00;
}

object meter {
    name "ref_lv_bus_31";
    phases ABCN;
    nominal_voltage 230.00;
}

object meter {
    name "ref_lv_bus_32";
    phases ABCN;
    nominal_voltage 230.00;
}

object meter {
    name "ref_lv_bus_33";
    phases ABCN;
    nominal_voltage 230.00;
}

object meter {
    name "ref_lv_bus_34";
    phases ABCN;
    nominal_voltage 230.00;
}

object meter {
    name "ref_lv_bus_35";
    phases ABCN;
    nominal_voltage 230.00;
}

object meter {
    name "ref_lv_bus_36";
    phases ABCN;
    nominal_voltage 230.00;
}

object meter {
    name "ref_lv_bus_37";
    phases ABCN;
    nominal_voltage 230.00;
}

object meter {
    name "ref_lv_bus_38";
    phases ABCN;
    nominal_voltage 230.00;
}

object meter {
    name "ref_lv_bus_39";
    phases ABCN;
    nominal_voltage 230.00;
}

object meter {
    name "ref_lv_bus_40";
    phases ABCN;
    nominal_voltage 230.00;
}

object meter {
    name "ref_lv_bus_41";
    phases ABCN;
    nominal_voltage 230.00;
}

object meter {
    name "ref_lv_bus_42";
    phases ABCN;
    nominal_voltage 230.00;
}

object meter {
    name "ref_lv_bus_43";
    phases ABCN;
    nominal_voltage 230.00;
}

object meter {
    name "ref_lv_bus_44";
    phases ABCN;
    nominal_voltage 230.00;
}

object meter {
    name "ref_lv_bus_45";
    phases ABCN;
    nominal_voltage 230.00;
}

object meter {
    name "ref_lv_bus_46";
    phases ABCN;
    nominal_voltage 230.00;
}

object meter {
    name "ref_lv_bus_47";
    phases ABCN;
    nominal_voltage 230.00;
}

object meter {
    name "ref_lv_bus_48";
    phases ABCN;
    nominal_voltage 230.00;
}

object meter {
    name "ref_lv_bus_49";
    phases ABCN;
    nominal_voltage 230.00;
}

object meter {
    name "ref_lv_bus_50";
    phases ABCN;
    nominal_voltage 230.00;
}

// ---- PCC transformers (CINELDI LV branches promoted to MV/LV units) ----
object transformer_configuration {
    name "pcc_1_cfg";
    connect_type WYE_WYE;
    power_rating 50;
    primary_voltage 12700.00;
    secondary_voltage 230.00;
    resistance 0.01900;
    reactance 0.03520;
    // sized for zone peak 17.3 kVA / PV 0 kW
    // x 1.25 -> next standard size
}

object transformer {
    name "pcc_1";
    phases ABCN;
    from "ref_lv_bus_1";
    to "ref_lv_bus_2";
    configuration "pcc_1_cfg";
    // replaces CINELDI branch 1-2 (9.8 m cable)
}

object transformer_configuration {
    name "pcc_2_cfg";
    connect_type WYE_WYE;
    power_rating 50;
    primary_voltage 12700.00;
    secondary_voltage 230.00;
    resistance 0.01900;
    reactance 0.03520;
    // sized for zone peak 25.3 kVA / PV 0 kW
    // x 1.25 -> next standard size
}

object transformer {
    name "pcc_2";
    phases ABCN;
    from "ref_lv_bus_1";
    to "ref_lv_bus_7";
    configuration "pcc_2_cfg";
    // replaces CINELDI branch 1-7 (31.2 m cable)
}

object transformer_configuration {
    name "pcc_3_cfg";
    connect_type WYE_WYE;
    power_rating 50;
    primary_voltage 12700.00;
    secondary_voltage 230.00;
    resistance 0.01900;
    reactance 0.03520;
    // sized for zone peak 25.4 kVA / PV 0 kW
    // x 1.25 -> next standard size
}

object transformer {
    name "pcc_3";
    phases ABCN;
    from "ref_lv_bus_1";
    to "ref_lv_bus_21";
    configuration "pcc_3_cfg";
    // replaces CINELDI branch 21-1 (31.2 m cable)
}

object transformer_configuration {
    name "pcc_4_cfg";
    connect_type WYE_WYE;
    power_rating 50;
    primary_voltage 12700.00;
    secondary_voltage 230.00;
    resistance 0.01900;
    reactance 0.03520;
    // sized for zone peak 21.5 kVA / PV 0 kW
    // x 1.25 -> next standard size
}

object transformer {
    name "pcc_4";
    phases ABCN;
    from "ref_lv_bus_1";
    to "ref_lv_bus_32";
    configuration "pcc_4_cfg";
    // replaces CINELDI branch 1-32 (19.6 m cable)
}

object transformer_configuration {
    name "pcc_5_cfg";
    connect_type WYE_WYE;
    power_rating 50;
    primary_voltage 12700.00;
    secondary_voltage 230.00;
    resistance 0.01900;
    reactance 0.03520;
    // sized for zone peak 10.8 kVA / PV 0 kW
    // x 1.25 -> next standard size
}

object transformer {
    name "pcc_5";
    phases ABCN;
    from "ref_lv_bus_1";
    to "ref_lv_bus_34";
    configuration "pcc_5_cfg";
    // replaces CINELDI branch 1-34 (10.1 m cable)
}

object transformer_configuration {
    name "pcc_6_cfg";
    connect_type WYE_WYE;
    power_rating 50;
    primary_voltage 12700.00;
    secondary_voltage 230.00;
    resistance 0.01900;
    reactance 0.03520;
    // sized for zone peak 32.8 kVA / PV 0 kW
    // x 1.25 -> next standard size
}

object transformer {
    name "pcc_6";
    phases ABCN;
    from "ref_lv_bus_1";
    to "ref_lv_bus_37";
    configuration "pcc_6_cfg";
    // replaces CINELDI branch 37-1 (20.4 m cable)
}

object transformer_configuration {
    name "pcc_7_cfg";
    connect_type WYE_WYE;
    power_rating 50;
    primary_voltage 12700.00;
    secondary_voltage 230.00;
    resistance 0.01900;
    reactance 0.03520;
    // sized for zone peak 5.5 kVA / PV 0 kW
    // x 1.25 -> next standard size
}

object transformer {
    name "pcc_7";
    phases ABCN;
    from "ref_lv_bus_1";
    to "ref_lv_bus_44";
    configuration "pcc_7_cfg";
    // replaces CINELDI branch 1-44 (10.0 m cable)
}

// ---- lines ----
object overhead_line {
    name "Line_0";
    phases ABCN;
    from "ref_lv_bus_38";
    to "ref_lv_bus_37";
    length 45.08 ft;
    configuration "lc_ex_3x95_al";
    resistance_ohm_per_km 0.125;
    reactance_ohm_per_km 0.081;
    impedance_length_unit km;
    capacity_kw 87.64;
    // EX 3x95 Al, 13.7 m
}

object overhead_line {
    name "Line_1";
    phases ABCN;
    from "ref_lv_bus_46";
    to "ref_lv_bus_45";
    length 104.52 ft;
    configuration "lc_ex_3x25_al";
    resistance_ohm_per_km 1.2;
    reactance_ohm_per_km 0.081681409;
    impedance_length_unit km;
    capacity_kw 37.85;
    // EX 3x25 Al, 31.9 m
}

object overhead_line {
    name "Line_2";
    phases ABCN;
    from "ref_lv_bus_27";
    to "ref_lv_bus_26";
    length 55.10 ft;
    configuration "lc_ex_3x25_al";
    resistance_ohm_per_km 1.2;
    reactance_ohm_per_km 0.081681409;
    impedance_length_unit km;
    capacity_kw 37.85;
    // EX 3x25 Al, 16.8 m
}

object overhead_line {
    name "Line_3";
    phases ABCN;
    from "ref_lv_bus_24";
    to "ref_lv_bus_25";
    length 155.99 ft;
    configuration "lc_ex_3x25_al";
    resistance_ohm_per_km 1.2;
    reactance_ohm_per_km 0.081681409;
    impedance_length_unit km;
    capacity_kw 37.85;
    // EX 3x25 Al, 47.5 m
}

object overhead_line {
    name "Line_5";
    phases ABCN;
    from "ref_lv_bus_13";
    to "ref_lv_bus_14";
    length 173.59 ft;
    configuration "lc_ex_3x25_al";
    resistance_ohm_per_km 1.2;
    reactance_ohm_per_km 0.081681409;
    impedance_length_unit km;
    capacity_kw 37.85;
    // EX 3x25 Al, 52.9 m
}

object overhead_line {
    name "Line_6";
    phases ABCN;
    from "ref_lv_bus_14";
    to "ref_lv_bus_15";
    length 59.52 ft;
    configuration "lc_ex_3x25_al";
    resistance_ohm_per_km 1.2;
    reactance_ohm_per_km 0.081681409;
    impedance_length_unit km;
    capacity_kw 37.85;
    // EX 3x25 Al, 18.1 m
}

object overhead_line {
    name "Line_8";
    phases ABCN;
    from "ref_lv_bus_22";
    to "ref_lv_bus_23";
    length 931.25 ft;
    configuration "lc_ex_3x95_al";
    resistance_ohm_per_km 0.32;
    reactance_ohm_per_km 0.075398224;
    impedance_length_unit km;
    capacity_kw 87.64;
    // EX 3x95 Al, 283.8 m
}

object overhead_line {
    name "Line_9";
    phases ABCN;
    from "ref_lv_bus_24";
    to "ref_lv_bus_26";
    length 175.71 ft;
    configuration "lc_ex_3x95_al";
    resistance_ohm_per_km 0.32;
    reactance_ohm_per_km 0.075398224;
    impedance_length_unit km;
    capacity_kw 87.64;
    // EX 3x95 Al, 53.6 m
}

object overhead_line {
    name "Line_10";
    phases ABCN;
    from "ref_lv_bus_20";
    to "ref_lv_bus_19";
    length 41.50 ft;
    configuration "lc_ex_3x25_al";
    resistance_ohm_per_km 1.15;
    reactance_ohm_per_km 0.084823002;
    impedance_length_unit km;
    capacity_kw 37.85;
    // EX 3x25 Al, 12.6 m
}

object overhead_line {
    name "Line_11";
    phases ABCN;
    from "ref_lv_bus_35";
    to "ref_lv_bus_36";
    length 41.78 ft;
    configuration "lc_ex_3x95_al";
    resistance_ohm_per_km 0.32;
    reactance_ohm_per_km 0.075398224;
    impedance_length_unit km;
    capacity_kw 87.64;
    // EX 3x95 Al, 12.7 m
}

object overhead_line {
    name "Line_13";
    phases ABCN;
    from "ref_lv_bus_45";
    to "ref_lv_bus_50";
    length 905.58 ft;
    configuration "lc_ex_3x25_al";
    resistance_ohm_per_km 1.2;
    reactance_ohm_per_km 0.081681409;
    impedance_length_unit km;
    capacity_kw 37.85;
    // EX 3x25 Al, 276.0 m
}

object overhead_line {
    name "Line_14";
    phases ABCN;
    from "ref_lv_bus_38";
    to "ref_lv_bus_39";
    length 53.06 ft;
    configuration "lc_ex_3x25_al";
    resistance_ohm_per_km 1.15;
    reactance_ohm_per_km 0.084823002;
    impedance_length_unit km;
    capacity_kw 37.85;
    // EX 3x25 Al, 16.2 m
}

object overhead_line {
    name "Line_15";
    phases ABCN;
    from "ref_lv_bus_31";
    to "ref_lv_bus_22";
    length 59.72 ft;
    configuration "lc_ex_3x25_al";
    resistance_ohm_per_km 1.2;
    reactance_ohm_per_km 0.081681409;
    impedance_length_unit km;
    capacity_kw 37.85;
    // EX 3x25 Al, 18.2 m
}

object overhead_line {
    name "Line_16";
    phases ABCN;
    from "ref_lv_bus_2";
    to "ref_lv_bus_3";
    length 1574.69 ft;
    configuration "lc_ex_3x95_al";
    resistance_ohm_per_km 0.32;
    reactance_ohm_per_km 0.075398224;
    impedance_length_unit km;
    capacity_kw 87.64;
    // EX 3x95 Al, 480.0 m
}

object overhead_line {
    name "Line_17";
    phases ABCN;
    from "ref_lv_bus_9";
    to "ref_lv_bus_8";
    length 173.51 ft;
    configuration "lc_ex_3x25_al";
    resistance_ohm_per_km 1.2;
    reactance_ohm_per_km 0.081681409;
    impedance_length_unit km;
    capacity_kw 37.85;
    // EX 3x25 Al, 52.9 m
}

object overhead_line {
    name "Line_18";
    phases ABCN;
    from "ref_lv_bus_8";
    to "ref_lv_bus_12";
    length 71.46 ft;
    configuration "lc_ex_3x25_al";
    resistance_ohm_per_km 1.2;
    reactance_ohm_per_km 0.081681409;
    impedance_length_unit km;
    capacity_kw 37.85;  // estimated: rateA blank in source
    // EX 3x25 Al, 21.8 m
}

object overhead_line {
    name "Line_19";
    phases ABCN;
    from "ref_lv_bus_40";
    to "ref_lv_bus_38";
    length 32.93 ft;
    configuration "lc_ex_3x25_al";
    resistance_ohm_per_km 1.15;
    reactance_ohm_per_km 0.084823002;
    impedance_length_unit km;
    capacity_kw 37.85;
    // EX 3x25 Al, 10.0 m
}

object overhead_line {
    name "Line_20";
    phases ABCN;
    from "ref_lv_bus_4";
    to "ref_lv_bus_5";
    length 393.20 ft;
    configuration "lc_ex_3x50_al";
    resistance_ohm_per_km 0.6409999728;
    reactance_ohm_per_km 0.08600000292;
    impedance_length_unit km;
    capacity_kw 37.85;
    // EX 3x50 Al, 119.8 m
}

object overhead_line {
    name "Line_21";
    phases ABCN;
    from "ref_lv_bus_34";
    to "ref_lv_bus_35";
    length 2027.40 ft;
    configuration "lc_ex_3x95_al";
    resistance_ohm_per_km 0.32;
    reactance_ohm_per_km 0.075398224;
    impedance_length_unit km;
    capacity_kw 55.77;
    // EX 3x95 Al, 618.0 m
}

object overhead_line {
    name "Line_22";
    phases ABCN;
    from "ref_lv_bus_28";
    to "ref_lv_bus_26";
    length 336.47 ft;
    configuration "lc_ex_3x95_al";
    resistance_ohm_per_km 0.32;
    reactance_ohm_per_km 0.075398224;
    impedance_length_unit km;
    capacity_kw 87.64;
    // EX 3x95 Al, 102.6 m
}

object overhead_line {
    name "Line_23";
    phases ABCN;
    from "ref_lv_bus_21";
    to "ref_lv_bus_22";
    length 754.18 ft;
    configuration "lc_ex_3x95_al";
    resistance_ohm_per_km 0.32;
    reactance_ohm_per_km 0.075398224;
    impedance_length_unit km;
    capacity_kw 87.64;
    // EX 3x95 Al, 229.9 m
}

object overhead_line {
    name "Line_24";
    phases ABCN;
    from "ref_lv_bus_24";
    to "ref_lv_bus_23";
    length 360.63 ft;
    configuration "lc_ex_3x95_al";
    resistance_ohm_per_km 0.32;
    reactance_ohm_per_km 0.075398224;
    impedance_length_unit km;
    capacity_kw 87.64;
    // EX 3x95 Al, 109.9 m
}

object overhead_line {
    name "Line_25";
    phases ABCN;
    from "ref_lv_bus_9";
    to "ref_lv_bus_10";
    length 113.91 ft;
    configuration "lc_ex_3x25_al";
    resistance_ohm_per_km 1.2;
    reactance_ohm_per_km 0.081681409;
    impedance_length_unit km;
    capacity_kw 87.64;
    // EX 3x25 Al, 34.7 m
}

object overhead_line {
    name "Line_26";
    phases ABCN;
    from "ref_lv_bus_33";
    to "ref_lv_bus_32";
    length 198.33 ft;
    configuration "lc_ex_3x95_al";
    resistance_ohm_per_km 0.125;
    reactance_ohm_per_km 0.081;
    impedance_length_unit km;
    capacity_kw 37.85;
    // EX 3x95 Al, 60.4 m
}

object overhead_line {
    name "Line_27";
    phases ABCN;
    from "ref_lv_bus_8";
    to "ref_lv_bus_7";
    length 173.38 ft;
    configuration "lc_ex_3x95_al";
    resistance_ohm_per_km 0.32;
    reactance_ohm_per_km 0.075398224;
    impedance_length_unit km;
    capacity_kw 87.64;
    // EX 3x95 Al, 52.8 m
}

object overhead_line {
    name "Line_28";
    phases ABCN;
    from "ref_lv_bus_13";
    to "ref_lv_bus_19";
    length 90.43 ft;
    configuration "lc_ex_3x25_al";
    resistance_ohm_per_km 1.2;
    reactance_ohm_per_km 0.081681409;
    impedance_length_unit km;
    capacity_kw 87.64;
    // EX 3x25 Al, 27.6 m
}

object overhead_line {
    name "Line_29";
    phases ABCN;
    from "ref_lv_bus_46";
    to "ref_lv_bus_47";
    length 328.78 ft;
    configuration "lc_ex_3x25_al";
    resistance_ohm_per_km 1.2;
    reactance_ohm_per_km 0.081681409;
    impedance_length_unit km;
    capacity_kw 37.85;
    // EX 3x25 Al, 100.2 m
}

object overhead_line {
    name "Line_30";
    phases ABCN;
    from "ref_lv_bus_4";
    to "ref_lv_bus_3";
    length 329.92 ft;
    configuration "lc_ex_3x95_al";
    resistance_ohm_per_km 0.32;
    reactance_ohm_per_km 0.082;
    impedance_length_unit km;
    capacity_kw 37.85;
    // EX 3x95 Al, 100.6 m
}

object overhead_line {
    name "Line_31";
    phases ABCN;
    from "ref_lv_bus_47";
    to "ref_lv_bus_48";
    length 65.74 ft;
    configuration "lc_ex_3x25_al";
    resistance_ohm_per_km 1.2;
    reactance_ohm_per_km 0.081681409;
    impedance_length_unit km;
    capacity_kw 87.64;
    // EX 3x25 Al, 20.0 m
}

object overhead_line {
    name "Line_32";
    phases ABCN;
    from "ref_lv_bus_17";
    to "ref_lv_bus_18";
    length 81.09 ft;
    configuration "lc_ex_3x25_al";
    resistance_ohm_per_km 1.2;
    reactance_ohm_per_km 0.081681409;
    impedance_length_unit km;
    capacity_kw 37.85;
    // EX 3x25 Al, 24.7 m
}

object overhead_line {
    name "Line_33";
    phases ABCN;
    from "ref_lv_bus_29";
    to "ref_lv_bus_28";
    length 56.04 ft;
    configuration "lc_ex_3x25_al";
    resistance_ohm_per_km 1.2;
    reactance_ohm_per_km 0.081681409;
    impedance_length_unit km;
    capacity_kw 37.85;
    // EX 3x25 Al, 17.1 m
}

object overhead_line {
    name "Line_34";
    phases ABCN;
    from "ref_lv_bus_14";
    to "ref_lv_bus_16";
    length 89.82 ft;
    configuration "lc_ex_3x25_al";
    resistance_ohm_per_km 1.2;
    reactance_ohm_per_km 0.081681409;
    impedance_length_unit km;
    capacity_kw 37.85;
    // EX 3x25 Al, 27.4 m
}

object overhead_line {
    name "Line_36";
    phases ABCN;
    from "ref_lv_bus_44";
    to "ref_lv_bus_45";
    length 1198.23 ft;
    configuration "lc_ex_3x50_al";
    resistance_ohm_per_km 0.641;
    reactance_ohm_per_km 0.078539816;
    impedance_length_unit km;
    capacity_kw 87.64;
    // EX 3x50 Al, 365.2 m
}

object overhead_line {
    name "Line_37";
    phases ABCN;
    from "ref_lv_bus_30";
    to "ref_lv_bus_23";
    length 109.53 ft;
    configuration "lc_ex_3x50_al";
    resistance_ohm_per_km 0.6409999728;
    reactance_ohm_per_km 0.08600000292;
    impedance_length_unit km;
    capacity_kw 55.77;
    // EX 3x50 Al, 33.4 m
}

object overhead_line {
    name "Line_38";
    phases ABCN;
    from "ref_lv_bus_17";
    to "ref_lv_bus_14";
    length 91.45 ft;
    configuration "lc_ex_3x25_al";
    resistance_ohm_per_km 1.2;
    reactance_ohm_per_km 0.081681409;
    impedance_length_unit km;
    capacity_kw 55.77;
    // EX 3x25 Al, 27.9 m
}

object overhead_line {
    name "Line_39";
    phases ABCN;
    from "ref_lv_bus_41";
    to "ref_lv_bus_38";
    length 213.79 ft;
    configuration "lc_ex_3x95_al";
    resistance_ohm_per_km 0.206;
    reactance_ohm_per_km 0.082;
    impedance_length_unit km;
    capacity_kw 37.85;
    // EX 3x95 Al, 65.2 m
}

object overhead_line {
    name "Line_40";
    phases ABCN;
    from "ref_lv_bus_4";
    to "ref_lv_bus_6";
    length 18.13 ft;
    configuration "lc_ex_3x50_al";
    resistance_ohm_per_km 0.6409999728;
    reactance_ohm_per_km 0.08600000292;
    impedance_length_unit km;
    capacity_kw 87.64;
    // EX 3x50 Al, 5.5 m
}

object overhead_line {
    name "Line_41";
    phases ABCN;
    from "ref_lv_bus_9";
    to "ref_lv_bus_11";
    length 90.63 ft;
    configuration "lc_ex_3x50_al";
    resistance_ohm_per_km 0.724;
    reactance_ohm_per_km 0.252678832;
    impedance_length_unit km;
    capacity_kw 87.64;  // estimated: rateA blank in source
    // EX 3x50 Al, 27.6 m
}

object overhead_line {
    name "Line_42";
    phases ABCN;
    from "ref_lv_bus_49";
    to "ref_lv_bus_46";
    length 110.36 ft;
    configuration "lc_ex_3x25_al";
    resistance_ohm_per_km 1.2;
    reactance_ohm_per_km 0.081681409;
    impedance_length_unit km;
    capacity_kw 55.77;
    // EX 3x25 Al, 33.6 m
}

object overhead_line {
    name "Line_43";
    phases ABCN;
    from "ref_lv_bus_41";
    to "ref_lv_bus_42";
    length 14.38 ft;
    configuration "lc_ex_3x25_al";
    resistance_ohm_per_km 1.15;
    reactance_ohm_per_km 0.084823002;
    impedance_length_unit km;
    capacity_kw 37.85;
    // EX 3x25 Al, 4.4 m
}

object overhead_line {
    name "Line_44";
    phases ABCN;
    from "ref_lv_bus_43";
    to "ref_lv_bus_38";
    length 81.39 ft;
    configuration "lc_ex_3x95_al";
    resistance_ohm_per_km 0.32;
    reactance_ohm_per_km 0.082;
    impedance_length_unit km;
    capacity_kw 87.64;  // estimated: rateA blank in source
    // EX 3x95 Al, 24.8 m
}

object overhead_line {
    name "Line_48";
    phases ABCN;
    from "ref_lv_bus_13";
    to "ref_lv_bus_8";
    length 435.03 ft;
    configuration "lc_ex_3x95_al";
    resistance_ohm_per_km 0.32;
    reactance_ohm_per_km 0.075398224;
    impedance_length_unit km;
    capacity_kw 87.64;
    // EX 3x95 Al, 132.6 m
}

// ---- loads (2021-01-01 00:00:00 snapshot, VA) ----
object load {
    name "Load_0";
    parent "ref_lv_bus_6";
    phases ABCN;
    constant_power_A 4060.0+117.0j;
    nominal_voltage 230.00;
}

object load {
    name "Load_1";
    parent "ref_lv_bus_10";
    phases ABCN;
    constant_power_A 1099.0+243.0j;
    nominal_voltage 230.00;
}

object load {
    name "Load_2";
    parent "ref_lv_bus_11";
    phases ABCN;
    constant_power_A 5151.0+200.0j;
    nominal_voltage 230.00;
}

object load {
    name "Load_3";
    parent "ref_lv_bus_12";
    phases ABCN;
    constant_power_A 653.0+75.0j;
    nominal_voltage 230.00;
}

object load {
    name "Load_4";
    parent "ref_lv_bus_15";
    phases ABCN;
    constant_power_A 1964.0+37.0j;
    nominal_voltage 230.00;
}

object load {
    name "Load_5";
    parent "ref_lv_bus_16";
    phases ABCN;
    constant_power_A 4314.0+720.0j;
    nominal_voltage 230.00;
}

object load {
    name "Load_6";
    parent "ref_lv_bus_18";
    phases ABCN;
    constant_power_A 3992.0+58.0j;
    nominal_voltage 230.00;
}

object load {
    name "Load_7";
    parent "ref_lv_bus_20";
    phases ABCN;
    constant_power_A 55.0+16.0j;
    nominal_voltage 230.00;
}

object load {
    name "Load_8";
    parent "ref_lv_bus_25";
    phases ABCN;
    constant_power_A 1649.0+0.0j;
    nominal_voltage 230.00;
}

object load {
    name "Load_9";
    parent "ref_lv_bus_29";
    phases ABCN;
    constant_power_A 2752.0+222.0j;
    nominal_voltage 230.00;
}

object load {
    name "Load_10";
    parent "ref_lv_bus_30";
    phases ABCN;
    constant_power_A 3080.0+77.0j;
    nominal_voltage 230.00;
}

object load {
    name "Load_11";
    parent "ref_lv_bus_31";
    phases ABCN;
    constant_power_A 3686.0+162.0j;
    nominal_voltage 230.00;
}

object load {
    name "Load_12";
    parent "ref_lv_bus_33";
    phases ABCN;
    constant_power_A 5600.0+1200.0j;
    nominal_voltage 230.00;
}

object load {
    name "Load_13";
    parent "ref_lv_bus_36";
    phases ABCN;
    constant_power_A 6507.0+0.0j;
    nominal_voltage 230.00;
}

object load {
    name "Load_14";
    parent "ref_lv_bus_39";
    phases ABCN;
    constant_power_A 1226.0+0.0j;
    nominal_voltage 230.00;
}

object load {
    name "Load_15";
    parent "ref_lv_bus_40";
    phases ABCN;
    constant_power_A 2250.0+32.0j;
    nominal_voltage 230.00;
}

object load {
    name "Load_16";
    parent "ref_lv_bus_42";
    phases ABCN;
    constant_power_A 15800.0+6100.0j;
    nominal_voltage 230.00;
}

object load {
    name "Load_17";
    parent "ref_lv_bus_43";
    phases ABCN;
    constant_power_A 613.0+1.0j;
    nominal_voltage 230.00;
}

object load {
    name "Load_18";
    parent "ref_lv_bus_48";
    phases ABCN;
    constant_power_A 439.0+25.0j;
    nominal_voltage 230.00;
}

object load {
    name "Load_19";
    parent "ref_lv_bus_49";
    phases ABCN;
    constant_power_A 888.0+1.0j;
    nominal_voltage 230.00;
}

object load {
    name "Load_20";
    parent "ref_lv_bus_50";
    phases ABCN;
    constant_power_A 411.0+47.0j;
    nominal_voltage 230.00;
}

// ---- PV (inverter first, solar parented to it) ----